feeders/123Bus/ieee123_Power_elem_kVA.txt

CIRCUIT ELEMENT POWER FLOW

(Power Flow into element from indicated Bus)

Power Delivery Elements

  Bus    Phase     kW     +j   kvar         kVA         PF

ELEMENT = "Vsource.SOURCE"
150          1     -1463.3 +j   -578.4     1573.4       0.9300
150          2      -962.1 +j   -336.3     1019.2       0.9440
150          3     -1189.9 +j   -396.8     1254.3       0.9486
   TERMINAL TOTAL  -3615.2 +j  -1311.5     3845.8       0.9401
150          0         0.0 +j      0.0        0.0       1.0000
150          0         0.0 +j      0.0        0.0       1.0000
150          0         0.0 +j      0.0        0.0       1.0000
   TERMINAL TOTAL      0.0 +j      0.0        0.0       1.0000

ELEMENT = "Transformer.REG1A"
150          1      1463.3 +j    578.4     1573.4       0.9300
150          2       962.1 +j    336.3     1019.2       0.9440
150          3      1189.9 +j    396.8     1254.3       0.9486
150          0         0.0 +j      0.0        0.0       1.0000
   TERMINAL TOTAL   3615.2 +j   1311.5     3845.8       0.9401
150R         1     -1463.3 +j   -578.4     1573.4       0.9300
150R         2      -962.1 +j   -336.3     1019.2       0.9440
150R         3     -1189.9 +j   -396.8     1254.3       0.9486
150R         0         0.0 +j      0.0        0.0       1.0000
   TERMINAL TOTAL  -3615.2 +j  -1311.5     3845.8       0.9401

ELEMENT = "Line.L115"
149          1      1463.3 +j    578.4     1573.4       0.9300
149          2       962.1 +j    336.3     1019.2       0.9440
149          3      1189.9 +j    396.8     1254.3       0.9486
   TERMINAL TOTAL   3615.2 +j   1311.5     3845.8       0.9401
1            1     -1452.0 +j   -555.0     1554.4       0.9341
1            2      -961.7 +j   -330.3     1016.9       0.9458
1            3     -1182.2 +j   -385.6     1243.5       0.9507
   TERMINAL TOTAL  -3595.9 +j  -1270.9     3813.9       0.9428

ELEMENT = "Line.L1"
1            2        20.0 +j     10.0       22.4       0.8944
   TERMINAL TOTAL     20.0 +j     10.0       22.4       0.8944
2            2       -20.0 +j    -10.0       22.4       0.8944
   TERMINAL TOTAL    -20.0 +j    -10.0       22.4       0.8944

ELEMENT = "Line.L2"
1            3       102.9 +j     51.5      115.0       0.8940
   TERMINAL TOTAL    102.9 +j     51.5      115.0       0.8940
3            3      -102.7 +j    -51.4      114.9       0.8943
   TERMINAL TOTAL   -102.7 +j    -51.4      114.9       0.8943

ELEMENT = "Line.L3"
1            1      1412.0 +j    535.0     1509.9       0.9351
1            2       941.7 +j    320.3      994.7       0.9468
1            3      1079.4 +j    334.1     1129.9       0.9553
   TERMINAL TOTAL   3433.1 +j   1189.4     3633.3       0.9449
7            1     -1403.5 +j   -518.6     1496.2       0.9380
7            2      -941.6 +j   -315.6      993.1       0.9482
7            3     -1074.8 +j   -327.5     1123.6       0.9566
   TERMINAL TOTAL  -3419.9 +j  -1161.7     3611.8       0.9469

ELEMENT = "Line.L4"
3            3        40.0 +j     20.0       44.7       0.8944
   TERMINAL TOTAL     40.0 +j     20.0       44.7       0.8944
4            3       -40.0 +j    -20.0       44.7       0.8944
   TERMINAL TOTAL    -40.0 +j    -20.0       44.7       0.8944

ELEMENT = "Line.L5"
3            3        62.7 +j     31.4       70.1       0.8942
   TERMINAL TOTAL     62.7 +j     31.4       70.1       0.8942
5            3       -62.6 +j    -31.3       70.0       0.8944
   TERMINAL TOTAL    -62.6 +j    -31.3       70.0       0.8944

ELEMENT = "Line.L6"
5            3        42.1 +j     21.1       47.1       0.8943
   TERMINAL TOTAL     42.1 +j     21.1       47.1       0.8943
6            3       -42.1 +j    -21.0       47.1       0.8944
   TERMINAL TOTAL    -42.1 +j    -21.0       47.1       0.8944

ELEMENT = "Line.L7"
7            1      1383.5 +j    508.6     1474.0       0.9386
7            2       941.6 +j    315.6      993.1       0.9482
7            3      1074.8 +j    327.5     1123.6       0.9566
   TERMINAL TOTAL   3399.9 +j   1151.7     3589.6       0.9471
8            1     -1378.0 +j   -498.0     1465.2       0.9405
8            2      -941.4 +j   -312.5      992.0       0.9491
8            3     -1071.8 +j   -323.1     1119.4       0.9574
   TERMINAL TOTAL  -3391.2 +j  -1133.5     3575.6       0.9484

ELEMENT = "Line.L8"
8            2        20.0 +j     10.0       22.4       0.8944
   TERMINAL TOTAL     20.0 +j     10.0       22.4       0.8944
12           2       -20.0 +j    -10.0       22.4       0.8944
   TERMINAL TOTAL    -20.0 +j    -10.0       22.4       0.8944

ELEMENT = "Line.L9"
8            1       100.9 +j     50.6      112.9       0.8940
   TERMINAL TOTAL    100.9 +j     50.6      112.9       0.8940
9            1      -100.8 +j    -50.4      112.7       0.8942
   TERMINAL TOTAL   -100.8 +j    -50.4      112.7       0.8942

ELEMENT = "Line.L10"
8            1      1277.1 +j    447.4     1353.2       0.9438
8            2       921.4 +j    302.5      969.8       0.9501
8            3      1071.8 +j    323.1     1119.4       0.9574
   TERMINAL TOTAL   3270.3 +j   1072.9     3441.8       0.9502
13           1     -1270.3 +j   -434.2     1342.4       0.9463
13           2      -920.8 +j   -298.1      967.8       0.9514
13           3     -1067.4 +j   -316.0     1113.2       0.9589
   TERMINAL TOTAL  -3258.5 +j  -1048.2     3422.9       0.9520

ELEMENT = "Line.L11"
9R           1        60.8 +j     30.4       68.0       0.8941
   TERMINAL TOTAL     60.8 +j     30.4       68.0       0.8941
14           1       -60.7 +j    -30.4       67.9       0.8944
   TERMINAL TOTAL    -60.7 +j    -30.4       67.9       0.8944

ELEMENT = "Line.L12"
13           3       101.2 +j     50.7      113.2       0.8942
   TERMINAL TOTAL    101.2 +j     50.7      113.2       0.8942
34           3      -101.1 +j    -50.6      113.1       0.8943
   TERMINAL TOTAL   -101.1 +j    -50.6      113.1       0.8943

ELEMENT = "Line.L13"
13           1       484.3 +j    263.5      551.4       0.8784
13           2       318.4 +j    216.0      384.8       0.8276
13           3       323.2 +j    188.6      374.2       0.8637
   TERMINAL TOTAL   1126.0 +j    668.1     1309.2       0.8600
18           1      -481.9 +j   -257.6      546.4       0.8819
18           2      -318.1 +j   -213.7      383.2       0.8301
18           3      -321.1 +j   -186.9      371.5       0.8643
   TERMINAL TOTAL  -1121.0 +j   -658.1     1299.9       0.8624

ELEMENT = "Line.L14"
14           1        40.5 +j     20.3       45.3       0.8943
   TERMINAL TOTAL     40.5 +j     20.3       45.3       0.8943
11           1       -40.5 +j    -20.3       45.3       0.8944
   TERMINAL TOTAL    -40.5 +j    -20.3       45.3       0.8944

ELEMENT = "Line.L15"
14           1        20.1 +j     10.1       22.5       0.8944
   TERMINAL TOTAL     20.1 +j     10.1       22.5       0.8944
10           1       -20.1 +j    -10.1       22.5       0.8944
   TERMINAL TOTAL    -20.1 +j    -10.1       22.5       0.8944

ELEMENT = "Line.L16"
15           3        40.0 +j     20.0       44.8       0.8943
   TERMINAL TOTAL     40.0 +j     20.0       44.8       0.8943
16           3       -40.0 +j    -20.0       44.7       0.8944
   TERMINAL TOTAL    -40.0 +j    -20.0       44.7       0.8944

ELEMENT = "Line.L17"
15           3        20.0 +j     10.0       22.4       0.8944
   TERMINAL TOTAL     20.0 +j     10.0       22.4       0.8944
17           3       -20.0 +j    -10.0       22.4       0.8944
   TERMINAL TOTAL    -20.0 +j    -10.0       22.4       0.8944

ELEMENT = "Line.L18"
18           1        79.8 +j     39.9       89.2       0.8942
   TERMINAL TOTAL     79.8 +j     39.9       89.2       0.8942
19           1       -79.7 +j    -39.8       89.1       0.8944
   TERMINAL TOTAL    -79.7 +j    -39.8       89.1       0.8944

ELEMENT = "Line.L19"
18           1       119.1 +j     60.1      133.4       0.8928
18           2        42.1 +j     21.1       47.1       0.8944
18           3       120.4 +j     60.4      134.7       0.8940
   TERMINAL TOTAL    281.6 +j    141.5      315.2       0.8936
21           1      -119.1 +j    -59.9      133.3       0.8933
21           2       -42.1 +j    -21.1       47.1       0.8943
21           3      -120.3 +j    -60.2      134.5       0.8942
   TERMINAL TOTAL   -281.5 +j   -141.3      315.0       0.8938

ELEMENT = "Line.L20"
19           1        39.7 +j     19.8       44.4       0.8943
   TERMINAL TOTAL     39.7 +j     19.8       44.4       0.8943
20           1       -39.6 +j    -19.8       44.3       0.8944
   TERMINAL TOTAL    -39.6 +j    -19.8       44.3       0.8944

ELEMENT = "Line.L21"
21           2        42.1 +j     21.1       47.1       0.8942
   TERMINAL TOTAL     42.1 +j     21.1       47.1       0.8942
22           2       -42.1 +j    -21.0       47.0       0.8944
   TERMINAL TOTAL    -42.1 +j    -21.0       47.0       0.8944

ELEMENT = "Line.L22"
21           1       119.1 +j     59.9      133.3       0.8933
21           2         0.0 +j     -0.0        0.0      -0.0623
21           3       120.3 +j     60.2      134.5       0.8942
   TERMINAL TOTAL    239.4 +j    120.2      267.9       0.8937
23           1      -119.1 +j    -59.8      133.3       0.8937
23           2        -0.0 +j      0.0        0.0      -0.0626
23           3      -120.2 +j    -60.1      134.4       0.8943
   TERMINAL TOTAL   -239.3 +j   -119.9      267.7       0.8940

ELEMENT = "Line.L23"
23           3        40.0 +j     20.0       44.8       0.8942
   TERMINAL TOTAL     40.0 +j     20.0       44.8       0.8942
24           3       -40.0 +j    -20.0       44.7       0.8944
   TERMINAL TOTAL    -40.0 +j    -20.0       44.7       0.8944

ELEMENT = "Line.L24"
23           1       119.1 +j     59.8      133.3       0.8937
23           2         0.0 +j     -0.0        0.0      -0.0626
23           3        80.1 +j     40.1       89.6       0.8943
   TERMINAL TOTAL    199.3 +j     99.9      222.9       0.8939
25           1      -119.1 +j    -59.7      133.2       0.8941
25           2        -0.0 +j      0.0        0.0      -0.0627
25           3       -80.1 +j    -40.1       89.5       0.8943
   TERMINAL TOTAL   -199.2 +j    -99.7      222.7       0.8942

ELEMENT = "Line.L25"
25R          1        40.1 +j     20.1       44.9       0.8939
25R          3        40.0 +j     20.0       44.8       0.8943
   TERMINAL TOTAL     80.2 +j     40.2       89.7       0.8941
26           1       -40.1 +j    -20.1       44.9       0.8941
26           3       -40.0 +j    -20.0       44.7       0.8943
   TERMINAL TOTAL    -80.2 +j    -40.1       89.6       0.8942

ELEMENT = "Line.L26"
25           1        79.0 +j     39.5       88.3       0.8942
25           2         0.0 +j     -0.0        0.0      -0.0627
25           3        40.0 +j     20.0       44.8       0.8943
   TERMINAL TOTAL    119.0 +j     59.6      133.1       0.8942
28           1       -78.9 +j    -39.5       88.3       0.8944
28           2        -0.0 +j      0.0        0.0      -0.0627
28           3       -40.0 +j    -20.0       44.8       0.8943
   TERMINAL TOTAL   -119.0 +j    -59.5      133.0       0.8944

ELEMENT = "Line.L27"
26           1        40.1 +j     20.1       44.9       0.8941
26           3        -0.0 +j     -0.0        0.0       0.1559
   TERMINAL TOTAL     40.1 +j     20.1       44.9       0.8941
27           1       -40.1 +j    -20.1       44.9       0.8942
27           3         0.0 +j      0.0        0.0       0.8763
   TERMINAL TOTAL    -40.1 +j    -20.1       44.9       0.8942

ELEMENT = "Line.L28"
26           3        40.0 +j     20.0       44.8       0.8943
   TERMINAL TOTAL     40.0 +j     20.0       44.8       0.8943
31           3       -40.0 +j    -20.0       44.7       0.8944
   TERMINAL TOTAL    -40.0 +j    -20.0       44.7       0.8944

ELEMENT = "Line.L29"
27           1        40.1 +j     20.1       44.9       0.8942
   TERMINAL TOTAL     40.1 +j     20.1       44.9       0.8942
33           1       -40.1 +j    -20.0       44.8       0.8944
   TERMINAL TOTAL    -40.1 +j    -20.0       44.8       0.8944

ELEMENT = "Line.L30"
28           1        39.3 +j     19.7       43.9       0.8943
28           2         0.0 +j     -0.0        0.0      -0.0627
28           3        40.0 +j     20.0       44.8       0.8943
   TERMINAL TOTAL     79.3 +j     39.7       88.7       0.8943
29           1       -39.3 +j    -19.6       43.9       0.8945
29           2        -0.0 +j      0.0        0.0      -0.0628
29           3       -40.0 +j    -20.0       44.7       0.8943
   TERMINAL TOTAL    -79.3 +j    -39.7       88.7       0.8944

ELEMENT = "Line.L31"
29           1         0.0 +j     -0.0        0.0      -0.0694
29           2         0.0 +j     -0.0        0.0      -0.0628
29           3        40.0 +j     20.0       44.7       0.8943
   TERMINAL TOTAL     40.0 +j     20.0       44.7       0.8944
30           1        -0.0 +j      0.0        0.0      -0.0694
30           2        -0.0 +j      0.0        0.0      -0.0630
30           3       -40.0 +j    -20.0       44.7       0.8944
   TERMINAL TOTAL    -40.0 +j    -20.0       44.7       0.8945

ELEMENT = "Line.L32"
30           1         0.0 +j     -0.0        0.0      -0.0694
30           2         0.0 +j     -0.0        0.0      -0.0630
30           3        -0.0 +j     -0.0        0.0       0.1319
   TERMINAL TOTAL      0.0 +j     -0.0        0.0      -0.0000
250          1        -0.0 +j      0.0        0.0      -0.9990
250          2        -0.0 +j     -0.0        0.0       0.9710
250          3        -0.0 +j     -0.0        0.0       0.4622
   TERMINAL TOTAL     -0.0 +j     -0.0        0.0       0.7360

ELEMENT = "Line.L33"
31           3        20.0 +j     10.0       22.4       0.8944
   TERMINAL TOTAL     20.0 +j     10.0       22.4       0.8944
32           3       -20.0 +j    -10.0       22.4       0.8944
   TERMINAL TOTAL    -20.0 +j    -10.0       22.4       0.8944

ELEMENT = "Line.L34"
34           3        60.1 +j     30.1       67.2       0.8943
   TERMINAL TOTAL     60.1 +j     30.1       67.2       0.8943
15           3       -60.0 +j    -30.0       67.1       0.8943
   TERMINAL TOTAL    -60.0 +j    -30.0       67.1       0.8943

ELEMENT = "Line.L35"
35           1        39.2 +j     19.6       43.8       0.8942
35           2        40.5 +j     20.3       45.3       0.8940
   TERMINAL TOTAL     79.7 +j     39.9       89.1       0.8941
36           1       -39.1 +j    -19.6       43.8       0.8943
36           2       -40.5 +j    -20.3       45.3       0.8943
   TERMINAL TOTAL    -79.6 +j    -39.8       89.0       0.8943

ELEMENT = "Line.L36"
35           1       217.8 +j    139.1      258.4       0.8428
35           2       220.5 +j    149.4      266.4       0.8278
35           3       200.6 +j    126.2      236.9       0.8465
   TERMINAL TOTAL    638.9 +j    414.7      761.7       0.8388
40           1      -217.6 +j   -138.7      258.1       0.8432
40           2      -220.4 +j   -149.1      266.1       0.8283
40           3      -200.5 +j   -125.9      236.7       0.8469
   TERMINAL TOTAL   -638.5 +j   -413.7      760.8       0.8392

ELEMENT = "Line.L37"
36           1        39.1 +j     19.6       43.8       0.8943
   TERMINAL TOTAL     39.1 +j     19.6       43.8       0.8943
37           1       -39.1 +j    -19.6       43.7       0.8944
   TERMINAL TOTAL    -39.1 +j    -19.6       43.7       0.8944

ELEMENT = "Line.L38"
36           2        40.5 +j     20.3       45.3       0.8943
   TERMINAL TOTAL     40.5 +j     20.3       45.3       0.8943
38           2       -40.5 +j    -20.2       45.2       0.8944
   TERMINAL TOTAL    -40.5 +j    -20.2       45.2       0.8944

ELEMENT = "Line.L39"
38           2        20.0 +j     10.0       22.4       0.8944
   TERMINAL TOTAL     20.0 +j     10.0       22.4       0.8944
39           2       -20.0 +j    -10.0       22.4       0.8944
   TERMINAL TOTAL    -20.0 +j    -10.0       22.4       0.8944

ELEMENT = "Line.L40"
40           3        20.0 +j     10.0       22.4       0.8944
   TERMINAL TOTAL     20.0 +j     10.0       22.4       0.8944
41           3       -20.0 +j    -10.0       22.4       0.8944
   TERMINAL TOTAL    -20.0 +j    -10.0       22.4       0.8944

ELEMENT = "Line.L41"
40           1       217.6 +j    138.7      258.1       0.8432
40           2       220.4 +j    149.1      266.1       0.8283
40           3       180.4 +j    115.9      214.4       0.8415
   TERMINAL TOTAL    618.4 +j    403.7      738.6       0.8374
42           1      -217.3 +j   -138.4      257.6       0.8435
42           2      -220.3 +j   -148.7      265.8       0.8288
42           3      -180.4 +j   -115.6      214.3       0.8418
   TERMINAL TOTAL   -618.0 +j   -402.8      737.7       0.8378

ELEMENT = "Line.L42"
42           2        41.7 +j     20.9       46.6       0.8942
   TERMINAL TOTAL     41.7 +j     20.9       46.6       0.8942
43           2       -41.7 +j    -20.8       46.6       0.8944
   TERMINAL TOTAL    -41.7 +j    -20.8       46.6       0.8944

ELEMENT = "Line.L43"
42           1       197.3 +j    128.4      235.4       0.8382
42           2       178.6 +j    127.9      219.7       0.8131
42           3       180.4 +j    115.6      214.3       0.8418
   TERMINAL TOTAL    556.3 +j    371.9      669.1       0.8313
44           1      -197.2 +j   -128.1      235.1       0.8385
44           2      -178.5 +j   -127.7      219.5       0.8134
44           3      -180.3 +j   -115.5      214.1       0.8421
   TERMINAL TOTAL   -556.0 +j   -371.3      668.6       0.8316

ELEMENT = "Line.L44"
44           1        39.7 +j     19.9       44.4       0.8943
   TERMINAL TOTAL     39.7 +j     19.9       44.4       0.8943
45           1       -39.7 +j    -19.9       44.4       0.8944
   TERMINAL TOTAL    -39.7 +j    -19.9       44.4       0.8944

ELEMENT = "Line.L45"
44           1       157.4 +j    108.3      191.1       0.8240
44           2       178.5 +j    127.7      219.5       0.8134
44           3       180.3 +j    115.5      214.1       0.8421
   TERMINAL TOTAL    516.2 +j    351.4      624.5       0.8266
47           1      -157.3 +j   -108.1      190.9       0.8242
47           2      -178.4 +j   -127.5      219.3       0.8137
47           3      -180.2 +j   -115.2      213.9       0.8425
   TERMINAL TOTAL   -515.9 +j   -350.8      623.9       0.8270

ELEMENT = "Line.L46"
45           1        20.0 +j     10.0       22.4       0.8944
   TERMINAL TOTAL     20.0 +j     10.0       22.4       0.8944
46           1       -20.0 +j    -10.0       22.4       0.8944
   TERMINAL TOTAL    -20.0 +j    -10.0       22.4       0.8944

ELEMENT = "Line.L47"
47           1        67.8 +j     48.5       83.4       0.8137
47           2        72.7 +j     52.0       89.4       0.8137
47           3        70.1 +j     50.1       86.2       0.8136
   TERMINAL TOTAL    210.7 +j    150.5      258.9       0.8137
48           1       -67.8 +j    -48.4       83.3       0.8137
48           2       -72.7 +j    -51.9       89.3       0.8137
48           3       -70.1 +j    -50.1       86.2       0.8137
   TERMINAL TOTAL   -210.6 +j   -150.5      258.9       0.8137

ELEMENT = "Line.L48"
47           1        55.0 +j     35.0       65.2       0.8436
47           2        70.0 +j     50.0       86.1       0.8137
47           3        75.0 +j     40.0       85.0       0.8822
   TERMINAL TOTAL    200.1 +j    125.1      235.9       0.8479
49           1       -55.0 +j    -35.0       65.2       0.8437
49           2       -70.0 +j    -50.0       86.0       0.8138
49           3       -75.0 +j    -40.0       85.0       0.8823
   TERMINAL TOTAL   -200.0 +j   -125.0      235.9       0.8480

ELEMENT = "Line.L49"
49           1        20.0 +j     10.0       22.4       0.8944
49           2        -0.0 +j     -0.0        0.0       0.3727
49           3        40.0 +j     20.0       44.7       0.8944
   TERMINAL TOTAL     60.0 +j     30.0       67.1       0.8944
50           1       -20.0 +j    -10.0       22.4       0.8944
50           2         0.0 +j      0.0        0.0       0.3725
50           3       -40.0 +j    -20.0       44.7       0.8945
   TERMINAL TOTAL    -60.0 +j    -30.0       67.1       0.8945

ELEMENT = "Line.L50"
50           1        20.0 +j     10.0       22.4       0.8944
50           2        -0.0 +j     -0.0        0.0       0.3725
50           3         0.0 +j     -0.0        0.0      -0.1461
   TERMINAL TOTAL     20.0 +j     10.0       22.4       0.8946
51           1       -20.0 +j    -10.0       22.4       0.8945
51           2         0.0 +j      0.0        0.0       0.3725
51           3        -0.0 +j      0.0        0.0      -0.1462
   TERMINAL TOTAL    -20.0 +j    -10.0       22.4       0.8946

ELEMENT = "Line.L51"
51           1         0.0 +j     -0.0        0.0      -0.3056
51           2        -0.0 +j     -0.0        0.0       0.3725
51           3         0.0 +j     -0.0        0.0      -0.1462
   TERMINAL TOTAL     -0.0 +j     -0.0        0.0       0.0000
151          1         0.0 +j     -0.0        0.0      -1.0000
151          2         0.0 +j      0.0        0.0       1.0000
151          3         0.0 +j      0.0        0.0       1.0000
   TERMINAL TOTAL      0.0 +j      0.0        0.0       1.0000

ELEMENT = "Line.L52"
52           1       742.4 +j    144.4      756.3       0.9816
52           2       602.0 +j     79.5      607.2       0.9914
52           3       641.3 +j     73.7      645.5       0.9935
   TERMINAL TOTAL   1985.6 +j    297.6     2007.8       0.9890
53           1      -740.8 +j   -141.7      754.2       0.9822
53           2      -601.7 +j    -78.1      606.8       0.9917
53           3      -640.4 +j    -72.1      644.5       0.9937
   TERMINAL TOTAL  -1982.9 +j   -291.9     2004.3       0.9893

ELEMENT = "Line.L53"
53           1       700.8 +j    121.7      711.3       0.9853
53           2       601.7 +j     78.1      606.8       0.9917
53           3       640.4 +j     72.1      644.5       0.9937
   TERMINAL TOTAL   1942.9 +j    271.9     1961.9       0.9903
54           1      -699.9 +j   -120.2      710.2       0.9856
54           2      -601.5 +j    -77.3      606.5       0.9918
54           3      -639.9 +j    -71.1      643.8       0.9939
   TERMINAL TOTAL  -1941.3 +j   -268.6     1959.8       0.9906

ELEMENT = "Line.L54"
54           1        19.7 +j      9.8       22.0       0.8945
54           2        20.0 +j     10.0       22.4       0.8944
54           3         0.0 +j     -0.0        0.0      -0.0689
   TERMINAL TOTAL     39.7 +j     19.8       44.4       0.8945
55           1       -19.7 +j     -9.8       22.0       0.8945
55           2       -20.0 +j    -10.0       22.4       0.8944
55           3        -0.0 +j      0.0        0.0      -0.0689
   TERMINAL TOTAL    -39.7 +j    -19.8       44.4       0.8945

ELEMENT = "Line.L55"
54           1       680.3 +j    110.4      689.2       0.9871
54           2       581.5 +j     67.3      585.4       0.9934
54           3       639.9 +j     71.1      643.8       0.9939
   TERMINAL TOTAL   1901.7 +j    248.8     1917.9       0.9916
57           1      -678.7 +j   -106.4      687.0       0.9879
57           2      -580.2 +j    -65.0      583.8       0.9938
57           3      -638.5 +j    -68.5      642.2       0.9943
   TERMINAL TOTAL  -1897.4 +j   -240.0     1912.5       0.9921

ELEMENT = "Line.L56"
55           1        -0.0 +j     -0.0        0.0       0.1499
55           2        20.0 +j     10.0       22.4       0.8944
55           3         0.0 +j     -0.0        0.0      -0.0689
   TERMINAL TOTAL     20.0 +j     10.0       22.4       0.8945
56           1         0.0 +j     -0.0        0.0      -0.4071
56           2       -20.0 +j    -10.0       22.4       0.8944
56           3        -0.0 +j     -0.0        0.0       0.9685
   TERMINAL TOTAL    -20.0 +j    -10.0       22.4       0.8944

ELEMENT = "Line.L57"
57           2        40.5 +j     20.3       45.3       0.8943
   TERMINAL TOTAL     40.5 +j     20.3       45.3       0.8943
58           2       -40.5 +j    -20.3       45.3       0.8944
   TERMINAL TOTAL    -40.5 +j    -20.3       45.3       0.8944

ELEMENT = "Line.L58"
57           1       678.7 +j    106.4      687.0       0.9879
57           2       539.7 +j     44.8      541.5       0.9966
57           3       638.5 +j     68.5      642.2       0.9943
   TERMINAL TOTAL   1856.9 +j    219.7     1869.8       0.9931
60           1      -675.4 +j    -97.6      682.4       0.9897
60           2      -537.4 +j    -40.8      538.9       0.9971
60           3      -635.2 +j    -63.1      638.3       0.9951
   TERMINAL TOTAL  -1848.0 +j   -201.5     1858.9       0.9941

ELEMENT = "Line.L59"
58           2        20.0 +j     10.0       22.4       0.8944
   TERMINAL TOTAL     20.0 +j     10.0       22.4       0.8944
59           2       -20.0 +j    -10.0       22.4       0.8944
   TERMINAL TOTAL    -20.0 +j    -10.0       22.4       0.8944

ELEMENT = "Line.L60"
60           1        -0.0 +j     -0.0        0.0       0.0882
60           2         0.0 +j     -0.0        0.0      -0.1398
60           3        -0.0 +j     -0.0        0.0       0.0571
   TERMINAL TOTAL      0.0 +j     -0.0        0.0      -0.0002
61           1        -0.0 +j     -0.0        0.0       0.0308
61           2        -0.0 +j     -0.0        0.0       0.0340
61           3        -0.0 +j     -0.0        0.0       0.0254
   TERMINAL TOTAL     -0.0 +j     -0.0        0.0       0.0301

ELEMENT = "Line.L61"
60           1        84.5 +j     65.4      106.9       0.7905
60           2       112.3 +j     61.0      127.8       0.8786
60           3       174.7 +j     83.5      193.6       0.9022
   TERMINAL TOTAL    371.4 +j    210.0      426.6       0.8705
62           1       -84.4 +j    -65.4      106.8       0.7904
62           2      -112.1 +j    -61.0      127.6       0.8784
62           3      -174.3 +j    -83.3      193.2       0.9023
   TERMINAL TOTAL   -370.8 +j   -209.7      426.0       0.8704

ELEMENT = "Line.L62"
62           1        84.4 +j     65.4      106.8       0.7904
62           2       112.1 +j     61.0      127.6       0.8784
62           3       134.5 +j     63.4      148.7       0.9046
   TERMINAL TOTAL    331.0 +j    189.8      381.6       0.8675
63           1       -84.3 +j    -65.4      106.7       0.7902
63           2      -112.0 +j    -61.0      127.5       0.8782
63           3      -134.4 +j    -63.3      148.6       0.9046
   TERMINAL TOTAL   -330.7 +j   -189.7      381.3       0.8674

ELEMENT = "Line.L63"
63           1        44.3 +j     45.4       63.5       0.6987
63           2       112.0 +j     61.0      127.5       0.8782
63           3       134.4 +j     63.3      148.6       0.9046
   TERMINAL TOTAL    290.7 +j    169.7      336.6       0.8636
64           1       -44.3 +j    -45.4       63.5       0.6982
64           2      -111.8 +j    -61.0      127.3       0.8779
64           3      -134.1 +j    -63.1      148.2       0.9048
   TERMINAL TOTAL   -290.2 +j   -169.5      336.1       0.8634

ELEMENT = "Line.L64"
64           1        44.3 +j     45.4       63.5       0.6982
64           2        35.5 +j     25.4       43.6       0.8135
64           3       134.1 +j     63.1      148.2       0.9048
   TERMINAL TOTAL    213.9 +j    134.0      252.4       0.8476
65           1       -44.3 +j    -45.4       63.4       0.6981
65           2       -35.5 +j    -25.4       43.7       0.8127
65           3      -133.7 +j    -63.0      147.8       0.9047
   TERMINAL TOTAL   -213.5 +j   -133.8      252.0       0.8473

ELEMENT = "Line.L65"
65           1         0.0 +j     -0.0        0.0      -0.0002
65           2        -0.0 +j     -0.0        0.0       0.0002
65           3        75.1 +j     35.0       82.9       0.9063
   TERMINAL TOTAL     75.1 +j     35.0       82.9       0.9065
66           1        -0.0 +j     -0.0        0.0       0.4566
66           2        -0.0 +j      0.0        0.0      -0.1181
66           3       -75.0 +j    -35.0       82.8       0.9062
   TERMINAL TOTAL    -75.0 +j    -35.0       82.8       0.9062

ELEMENT = "Line.L66"
67           1       120.4 +j     60.4      134.7       0.8939
   TERMINAL TOTAL    120.4 +j     60.4      134.7       0.8939
68           1      -120.2 +j    -60.2      134.5       0.8941
   TERMINAL TOTAL   -120.2 +j    -60.2      134.5       0.8941

ELEMENT = "Line.L67"
67           1       265.5 +j   -133.8      297.3      -0.8929
67           2       304.5 +j    -81.7      315.3      -0.9658
67           3       316.4 +j    -93.2      329.8      -0.9592
   TERMINAL TOTAL    886.4 +j   -308.8      938.7      -0.9443
72           1      -265.4 +j    134.3      297.4      -0.8922
72           2      -304.1 +j     82.2      315.1      -0.9654
72           3      -316.1 +j     93.9      329.8      -0.9586
   TERMINAL TOTAL   -885.6 +j    310.4      938.5      -0.9437

ELEMENT = "Line.L68"
67           1       184.1 +j     93.1      206.3       0.8924
67           2       120.2 +j     60.3      134.4       0.8938
67           3       143.1 +j     71.8      160.1       0.8938
   TERMINAL TOTAL    447.4 +j    225.2      500.9       0.8932
97           1      -184.0 +j    -92.9      206.1       0.8928
97           2      -120.1 +j    -60.2      134.4       0.8940
97           3      -143.0 +j    -71.7      160.0       0.8940
   TERMINAL TOTAL   -447.2 +j   -224.8      500.5       0.8935

ELEMENT = "Line.L69"
68           1       100.2 +j     50.2      112.1       0.8940
   TERMINAL TOTAL    100.2 +j     50.2      112.1       0.8940
69           1      -100.1 +j    -50.1      111.9       0.8943
   TERMINAL TOTAL   -100.1 +j    -50.1      111.9       0.8943

ELEMENT = "Line.L70"
69           1        60.1 +j     30.1       67.2       0.8942
   TERMINAL TOTAL     60.1 +j     30.1       67.2       0.8942
70           1       -60.0 +j    -30.0       67.1       0.8944
   TERMINAL TOTAL    -60.0 +j    -30.0       67.1       0.8944

ELEMENT = "Line.L71"
70           1        40.0 +j     20.0       44.8       0.8943
   TERMINAL TOTAL     40.0 +j     20.0       44.8       0.8943
71           1       -40.0 +j    -20.0       44.7       0.8944
   TERMINAL TOTAL    -40.0 +j    -20.0       44.7       0.8944

ELEMENT = "Line.L72"
72           3       122.9 +j     61.6      137.4       0.8939
   TERMINAL TOTAL    122.9 +j     61.6      137.4       0.8939
73           3      -122.6 +j    -61.4      137.2       0.8942
   TERMINAL TOTAL   -122.6 +j    -61.4      137.2       0.8942

ELEMENT = "Line.L73"
72           1       265.4 +j   -134.3      297.4      -0.8922
72           2       304.1 +j    -82.2      315.1      -0.9654
72           3       193.3 +j   -155.5      248.0      -0.7791
   TERMINAL TOTAL    762.8 +j   -372.0      848.7      -0.8988
76           1      -265.2 +j    134.6      297.4      -0.8917
76           2      -303.9 +j     82.6      314.9      -0.9649
76           3      -193.2 +j    155.7      248.2      -0.7786
   TERMINAL TOTAL   -762.3 +j    373.0      848.7      -0.8982

ELEMENT = "Line.L74"
73           3        82.6 +j     41.4       92.4       0.8941
   TERMINAL TOTAL     82.6 +j     41.4       92.4       0.8941
74           3       -82.5 +j    -41.3       92.3       0.8944
   TERMINAL TOTAL    -82.5 +j    -41.3       92.3       0.8944

ELEMENT = "Line.L75"
74           3        40.0 +j     20.0       44.8       0.8943
   TERMINAL TOTAL     40.0 +j     20.0       44.8       0.8943
75           3       -40.0 +j    -20.0       44.7       0.8944
   TERMINAL TOTAL    -40.0 +j    -20.0       44.7       0.8944

ELEMENT = "Line.L76"
76           1        84.1 +j   -176.4      195.4      -0.4302
76           2        80.6 +j   -179.0      196.3      -0.4105
76           3        81.0 +j   -174.4      192.3      -0.4210
   TERMINAL TOTAL    245.6 +j   -529.8      584.0      -0.4206
77           1       -84.0 +j    176.7      195.6      -0.4292
77           2       -80.4 +j    179.3      196.6      -0.4092
77           3       -80.8 +j    174.7      192.5      -0.4198
   TERMINAL TOTAL   -245.2 +j    530.7      584.6      -0.4194

ELEMENT = "Line.L77"
76           1        80.2 +j    -14.0       81.4      -0.9852
76           2       142.0 +j     17.4      143.1       0.9925
76           3        40.0 +j    -33.6       52.2      -0.7654
   TERMINAL TOTAL    262.2 +j    -30.1      263.9      -0.9935
86           1       -80.1 +j     14.0       81.3      -0.9851
86           2      -141.8 +j    -17.0      142.8       0.9929
86           3       -40.0 +j     33.7       52.3      -0.7651
   TERMINAL TOTAL   -261.9 +j     30.6      263.7      -0.9932

ELEMENT = "Line.L78"
77           1        84.0 +j   -176.7      195.6      -0.4292
77           2        40.4 +j   -199.3      203.4      -0.1988
77           3        80.8 +j   -174.7      192.5      -0.4198
   TERMINAL TOTAL    205.2 +j   -550.7      587.7      -0.3491
78           1       -83.9 +j    176.8      195.7      -0.4289
78           2       -40.4 +j    199.4      203.5      -0.1986
78           3       -80.7 +j    174.7      192.5      -0.4195
   TERMINAL TOTAL   -205.1 +j    550.9      587.9      -0.3489

ELEMENT = "Line.L79"
78           1        43.6 +j     21.8       48.7       0.8943
78           2        -0.0 +j     -0.0        0.0       0.0610
78           3        -0.0 +j     -0.0        0.0       0.0739
   TERMINAL TOTAL     43.5 +j     21.8       48.7       0.8944
79           1       -43.5 +j    -21.8       48.7       0.8944
79           2         0.0 +j      0.0        0.0       0.5370
79           3         0.0 +j      0.0        0.0       1.0000
   TERMINAL TOTAL    -43.5 +j    -21.8       48.7       0.8944

ELEMENT = "Line.L80"
78           1        40.4 +j   -198.5      202.6      -0.1993
78           2        40.4 +j   -199.4      203.5      -0.1986
78           3        80.7 +j   -174.7      192.5      -0.4195
   TERMINAL TOTAL    161.5 +j   -572.7      595.0      -0.2715
80           1       -40.2 +j    199.0      203.0      -0.1982
80           2       -40.3 +j    199.8      203.8      -0.1976
80           3       -80.5 +j    175.0      192.6      -0.4178
   TERMINAL TOTAL   -161.0 +j    573.8      596.0      -0.2702

ELEMENT = "Line.L81"
80           1        40.2 +j   -199.0      203.0      -0.1982
80           2         0.3 +j   -219.8      219.8      -0.0012
80           3        80.5 +j   -175.0      192.6      -0.4178
   TERMINAL TOTAL    121.0 +j   -593.8      606.0      -0.1997
81           1       -40.2 +j    199.2      203.2      -0.1978
81           2        -0.2 +j    220.0      220.0      -0.0010
81           3       -80.4 +j    175.1      192.7      -0.4172
   TERMINAL TOTAL   -120.8 +j    594.2      606.4      -0.1992

ELEMENT = "Line.L82"
81           1        40.2 +j   -199.2      203.2      -0.1978
81           2         0.2 +j   -220.0      220.0      -0.0010
81           3        20.2 +j   -205.3      206.3      -0.0981
   TERMINAL TOTAL     60.6 +j   -624.4      627.3      -0.0966
82           1       -40.1 +j    199.3      203.3      -0.1971
82           2        -0.1 +j    220.2      220.2      -0.0005
82           3       -20.1 +j    205.4      206.4      -0.0975
   TERMINAL TOTAL    -60.3 +j    625.0      627.9      -0.0961

ELEMENT = "Line.L83"
81           3        60.2 +j     30.2       67.3       0.8940
   TERMINAL TOTAL     60.2 +j     30.2       67.3       0.8940
84           3       -60.0 +j    -30.0       67.1       0.8943
   TERMINAL TOTAL    -60.0 +j    -30.0       67.1       0.8943

ELEMENT = "Line.L84"
82           1         0.1 +j   -219.3      219.3      -0.0004
82           2         0.1 +j   -220.2      220.2      -0.0005
82           3        20.1 +j   -205.4      206.4      -0.0975
   TERMINAL TOTAL     20.3 +j   -645.0      645.3      -0.0315
83           1        -0.0 +j    219.6      219.6      -0.0000
83           2        -0.0 +j    220.5      220.5      -0.0000
83           3       -20.0 +j    205.6      206.6      -0.0968
   TERMINAL TOTAL    -20.0 +j    645.7      646.0      -0.0310

ELEMENT = "Line.L85"
84           3        40.0 +j     20.0       44.8       0.8943
   TERMINAL TOTAL     40.0 +j     20.0       44.8       0.8943
85           3       -40.0 +j    -20.0       44.7       0.8944
   TERMINAL TOTAL    -40.0 +j    -20.0       44.7       0.8944

ELEMENT = "Line.L86"
86           1        80.1 +j    -14.0       81.3      -0.9851
86           2       121.8 +j      7.0      122.0       0.9983
86           3        40.0 +j    -33.7       52.3      -0.7651
   TERMINAL TOTAL    241.9 +j    -40.6      245.3      -0.9862
87           1       -80.1 +j     14.0       81.3      -0.9850
87           2      -121.7 +j     -6.8      121.9       0.9984
87           3       -40.0 +j     33.7       52.3      -0.7649
   TERMINAL TOTAL   -241.8 +j     40.9      245.3      -0.9860

ELEMENT = "Line.L87"
87           1        40.0 +j    -34.1       52.5      -0.7616
   TERMINAL TOTAL     40.0 +j    -34.1       52.5      -0.7616
88           1       -40.0 +j     34.1       52.5      -0.7613
   TERMINAL TOTAL    -40.0 +j     34.1       52.5      -0.7613

ELEMENT = "Line.L88"
87           1        40.1 +j     20.0       44.8       0.8944
87           2        81.7 +j    -13.2       82.8      -0.9873
87           3        40.0 +j    -33.7       52.3      -0.7649
   TERMINAL TOTAL    161.8 +j    -26.8      164.0      -0.9865
89           1       -40.0 +j    -20.0       44.8       0.8944
89           2       -81.7 +j     13.2       82.8      -0.9872
89           3       -40.0 +j     33.7       52.3      -0.7648
   TERMINAL TOTAL   -161.8 +j     26.9      164.0      -0.9864

ELEMENT = "Line.L89"
89           2        41.7 +j    -33.3       53.3      -0.7816
   TERMINAL TOTAL     41.7 +j    -33.3       53.3      -0.7816
90           2       -41.7 +j     33.3       53.3      -0.7811
   TERMINAL TOTAL    -41.7 +j     33.3       53.3      -0.7811

ELEMENT = "Line.L90"
89           1        40.0 +j     20.0       44.8       0.8944
89           2        40.0 +j     20.0       44.8       0.8941
89           3        40.0 +j    -33.7       52.3      -0.7648
   TERMINAL TOTAL    120.1 +j      6.4      120.3       0.9986
91           1       -40.0 +j    -20.0       44.8       0.8943
91           2       -40.0 +j    -20.0       44.7       0.8942
91           3       -40.0 +j     33.7       52.4      -0.7647
   TERMINAL TOTAL   -120.1 +j     -6.3      120.2       0.9986

ELEMENT = "Line.L91"
91           3        40.0 +j    -33.7       52.3      -0.7647
   TERMINAL TOTAL     40.0 +j    -33.7       52.3      -0.7647
92           3       -40.0 +j     33.8       52.3      -0.7641
   TERMINAL TOTAL    -40.0 +j     33.8       52.3      -0.7641

ELEMENT = "Line.L92"
91           1        40.0 +j     20.0       44.8       0.8943
91           2        40.0 +j     20.0       44.7       0.8942
91           3        -0.0 +j     -0.0        0.0       0.0736
   TERMINAL TOTAL     80.0 +j     40.1       89.5       0.8943
93           1       -40.0 +j    -20.0       44.8       0.8944
93           2       -40.0 +j    -20.0       44.7       0.8943
93           3         0.0 +j      0.0        0.0       0.0735
   TERMINAL TOTAL    -80.0 +j    -40.0       89.5       0.8943

ELEMENT = "Line.L93"
93           1        40.0 +j     20.0       44.8       0.8943
   TERMINAL TOTAL     40.0 +j     20.0       44.8       0.8943
94           1       -40.0 +j    -20.0       44.7       0.8944
   TERMINAL TOTAL    -40.0 +j    -20.0       44.7       0.8944

ELEMENT = "Line.L94"
93           1         0.0 +j     -0.0        0.0      -0.1348
93           2        40.0 +j     20.0       44.7       0.8943
93           3        -0.0 +j     -0.0        0.0       0.0735
   TERMINAL TOTAL     40.0 +j     20.0       44.7       0.8943
95           1        -0.0 +j      0.0        0.0      -0.0722
95           2       -40.0 +j    -20.0       44.7       0.8944
95           3         0.0 +j      0.0        0.0       0.9999
   TERMINAL TOTAL    -40.0 +j    -20.0       44.7       0.8944

ELEMENT = "Line.L95"
95           2        20.0 +j     10.0       22.4       0.8944
   TERMINAL TOTAL     20.0 +j     10.0       22.4       0.8944
96           2       -20.0 +j    -10.0       22.4       0.8944
   TERMINAL TOTAL    -20.0 +j    -10.0       22.4       0.8944

ELEMENT = "Line.L96"
97           1        40.0 +j     20.0       44.7       0.8945
97           2        40.0 +j     20.0       44.8       0.8944
97           3        42.7 +j     21.4       47.8       0.8940
   TERMINAL TOTAL    122.8 +j     61.4      137.3       0.8943
98           1       -40.0 +j    -20.0       44.7       0.8945
98           2       -40.0 +j    -20.0       44.7       0.8945
98           3       -42.7 +j    -21.4       47.8       0.8941
   TERMINAL TOTAL   -122.7 +j    -61.4      137.2       0.8944

ELEMENT = "Line.L97"
98           1         0.0 +j     -0.0        0.0      -0.0583
98           2        40.0 +j     20.0       44.7       0.8945
98           3        42.7 +j     21.4       47.8       0.8941
   TERMINAL TOTAL     82.7 +j     41.4       92.5       0.8943
99           1        -0.0 +j      0.0        0.0      -0.0585
99           2       -40.0 +j    -20.0       44.7       0.8945
99           3       -42.7 +j    -21.4       47.8       0.8944
   TERMINAL TOTAL    -82.7 +j    -41.3       92.5       0.8945

ELEMENT = "Line.L98"
99           1         0.0 +j     -0.0        0.0      -0.0585
99           2        -0.0 +j     -0.0        0.0       0.1368
99           3        42.7 +j     21.4       47.8       0.8944
   TERMINAL TOTAL     42.7 +j     21.3       47.8       0.8945
100          1        -0.0 +j      0.0        0.0      -0.0584
100          2         0.0 +j      0.0        0.0       0.1366
100          3       -42.7 +j    -21.3       47.7       0.8945
   TERMINAL TOTAL    -42.7 +j    -21.3       47.7       0.8946

ELEMENT = "Line.L99"
100          1         0.0 +j     -0.0        0.0      -0.0584
100          2        -0.0 +j     -0.0        0.0       0.1366
100          3         0.0 +j     -0.0        0.0      -0.0792
   TERMINAL TOTAL      0.0 +j     -0.0        0.0      -0.0000
450          1         0.0 +j      0.0        0.0       0.0670
450          2         0.0 +j      0.0        0.0       0.5331
450          3         0.0 +j      0.0        0.0       0.1068
   TERMINAL TOTAL      0.0 +j      0.0        0.0       0.2257

ELEMENT = "Line.L118"
197          1       144.0 +j     72.9      161.4       0.8923
197          2        80.1 +j     40.2       89.6       0.8938
197          3       100.3 +j     50.3      112.2       0.8939
   TERMINAL TOTAL    324.5 +j    163.4      363.3       0.8932
101          1      -144.0 +j    -72.7      161.3       0.8926
101          2       -80.1 +j    -40.2       89.6       0.8939
101          3      -100.3 +j    -50.3      112.2       0.8940
   TERMINAL TOTAL   -324.3 +j   -163.1      363.1       0.8934

ELEMENT = "Line.L100"
101          3       100.3 +j     50.3      112.2       0.8939
   TERMINAL TOTAL    100.3 +j     50.3      112.2       0.8939
102          3      -100.2 +j    -50.2      112.0       0.8941
   TERMINAL TOTAL   -100.2 +j    -50.2      112.0       0.8941

ELEMENT = "Line.L101"
101          1       144.0 +j     72.7      161.3       0.8926
101          2        80.1 +j     40.2       89.6       0.8939
101          3         0.0 +j     -0.0        0.0      -0.0796
   TERMINAL TOTAL    224.1 +j    112.9      250.9       0.8931
105          1      -143.8 +j    -72.5      161.1       0.8929
105          2       -80.1 +j    -40.1       89.6       0.8942
105          3        -0.0 +j      0.0        0.0      -0.0800
   TERMINAL TOTAL   -224.0 +j   -112.6      250.7       0.8934

ELEMENT = "Line.L102"
102          3        80.2 +j     40.2       89.7       0.8941
   TERMINAL TOTAL     80.2 +j     40.2       89.7       0.8941
103          3       -80.1 +j    -40.1       89.5       0.8943
   TERMINAL TOTAL    -80.1 +j    -40.1       89.5       0.8943

ELEMENT = "Line.L103"
103          3        40.1 +j     20.1       44.8       0.8942
   TERMINAL TOTAL     40.1 +j     20.1       44.8       0.8942
104          3       -40.0 +j    -20.0       44.7       0.8944
   TERMINAL TOTAL    -40.0 +j    -20.0       44.7       0.8944

ELEMENT = "Line.L104"
105          2        80.1 +j     40.1       89.6       0.8942
   TERMINAL TOTAL     80.1 +j     40.1       89.6       0.8942
106          2       -80.0 +j    -40.0       89.5       0.8943
   TERMINAL TOTAL    -80.0 +j    -40.0       89.5       0.8943

ELEMENT = "Line.L105"
105          1       143.8 +j     72.5      161.1       0.8929
105          2        -0.0 +j     -0.0        0.0       0.1372
105          3         0.0 +j     -0.0        0.0      -0.0800
   TERMINAL TOTAL    143.8 +j     72.5      161.1       0.8930
108          1      -143.7 +j    -72.3      160.9       0.8934
108          2         0.0 +j      0.0        0.0       0.1374
108          3        -0.0 +j      0.0        0.0      -0.0807
   TERMINAL TOTAL   -143.7 +j    -72.2      160.9       0.8935

ELEMENT = "Line.L106"
106          2        40.0 +j     20.0       44.8       0.8942
   TERMINAL TOTAL     40.0 +j     20.0       44.8       0.8942
107          2       -40.0 +j    -20.0       44.7       0.8944
   TERMINAL TOTAL    -40.0 +j    -20.0       44.7       0.8944

ELEMENT = "Line.L107"
108          1       143.7 +j     72.3      160.9       0.8934
   TERMINAL TOTAL    143.7 +j     72.3      160.9       0.8934
109          1      -143.2 +j    -71.8      160.2       0.8940
   TERMINAL TOTAL   -143.2 +j    -71.8      160.2       0.8940

ELEMENT = "Line.L108"
108          1         0.0 +j     -0.0        0.0      -0.0580
108          2        -0.0 +j     -0.0        0.0       0.1374
108          3         0.0 +j     -0.0        0.0      -0.0807
   TERMINAL TOTAL      0.0 +j     -0.0        0.0      -0.0000
300          1        -0.0 +j      0.0        0.0      -0.2495
300          2         0.0 +j      0.0        0.0       0.5341
300          3         0.0 +j      0.0        0.0       0.8855
   TERMINAL TOTAL      0.0 +j      0.0        0.0       0.5069

ELEMENT = "Line.L109"
109          1       103.2 +j     51.8      115.5       0.8939
   TERMINAL TOTAL    103.2 +j     51.8      115.5       0.8939
110          1      -103.1 +j    -51.6      115.3       0.8942
   TERMINAL TOTAL   -103.1 +j    -51.6      115.3       0.8942

ELEMENT = "Line.L110"
110          1        20.0 +j     10.0       22.4       0.8944
   TERMINAL TOTAL     20.0 +j     10.0       22.4       0.8944
111          1       -20.0 +j    -10.0       22.4       0.8944
   TERMINAL TOTAL    -20.0 +j    -10.0       22.4       0.8944

ELEMENT = "Line.L111"
110          1        83.1 +j     41.6       92.9       0.8941
   TERMINAL TOTAL     83.1 +j     41.6       92.9       0.8941
112          1       -83.0 +j    -41.6       92.8       0.8942
   TERMINAL TOTAL    -83.0 +j    -41.6       92.8       0.8942

ELEMENT = "Line.L112"
112          1        62.4 +j     31.3       69.8       0.8941
   TERMINAL TOTAL     62.4 +j     31.3       69.8       0.8941
113          1       -62.3 +j    -31.2       69.7       0.8944
   TERMINAL TOTAL    -62.3 +j    -31.2       69.7       0.8944

ELEMENT = "Line.L113"
113          1        20.0 +j     10.0       22.4       0.8944
   TERMINAL TOTAL     20.0 +j     10.0       22.4       0.8944
114          1       -20.0 +j    -10.0       22.4       0.8944
   TERMINAL TOTAL    -20.0 +j    -10.0       22.4       0.8944

ELEMENT = "Line.L114"
135          1       283.0 +j    157.5      323.9       0.8737
135          2       276.0 +j    192.7      336.6       0.8200
135          3       200.6 +j    126.5      237.2       0.8459
   TERMINAL TOTAL    759.6 +j    476.7      896.8       0.8470
35           1      -282.4 +j   -156.7      323.0       0.8745
35           2      -275.6 +j   -191.8      335.7       0.8208
35           3      -200.6 +j   -126.2      236.9       0.8465
   TERMINAL TOTAL   -758.6 +j   -474.6      894.8       0.8478

ELEMENT = "Line.L116"
152          1       786.0 +j    170.6      804.3       0.9772
152          2       602.3 +j     82.1      607.9       0.9908
152          3       643.0 +j     76.7      647.6       0.9930
   TERMINAL TOTAL   2031.3 +j    329.5     2057.9       0.9871
52           1      -782.4 +j   -164.4      799.5       0.9786
52           2      -602.0 +j    -79.5      607.2       0.9914
52           3      -641.3 +j    -73.7      645.5       0.9935
   TERMINAL TOTAL  -2025.6 +j   -317.6     2050.4       0.9879

ELEMENT = "Line.L117"
160R         1       570.9 +j     22.1      571.4       0.9992
160R         2       425.1 +j    -20.2      425.6      -0.9989
160R         3       460.5 +j    -20.4      461.0      -0.9990
   TERMINAL TOTAL   1456.6 +j    -18.4     1456.7      -0.9999
67           1      -570.0 +j    -19.6      570.3       0.9994
67           2      -424.7 +j     21.4      425.2      -0.9987
67           3      -459.5 +j     21.4      460.0      -0.9989
   TERMINAL TOTAL  -1454.2 +j     23.2     1454.4      -0.9999

ELEMENT = "Line.SW1"
150R         1      1463.3 +j    578.4     1573.4       0.9300
150R         2       962.1 +j    336.3     1019.2       0.9440
150R         3      1189.9 +j    396.8     1254.3       0.9486
   TERMINAL TOTAL   3615.2 +j   1311.5     3845.8       0.9401
149          1     -1463.3 +j   -578.4     1573.4       0.9300
149          2      -962.1 +j   -336.3     1019.2       0.9440
149          3     -1189.9 +j   -396.8     1254.3       0.9486
   TERMINAL TOTAL  -3615.2 +j  -1311.5     3845.8       0.9401

ELEMENT = "Line.SW2"
13           1       786.0 +j    170.6      804.3       0.9772
13           2       602.3 +j     82.1      607.9       0.9908
13           3       643.0 +j     76.7      647.6       0.9930
   TERMINAL TOTAL   2031.3 +j    329.5     2057.9       0.9871
152          1      -786.0 +j   -170.6      804.3       0.9772
152          2      -602.3 +j    -82.1      607.9       0.9908
152          3      -643.0 +j    -76.7      647.6       0.9930
   TERMINAL TOTAL  -2031.3 +j   -329.5     2057.9       0.9871

ELEMENT = "Line.SW3"
18           1       283.0 +j    157.5      323.9       0.8737
18           2       276.0 +j    192.7      336.6       0.8200
18           3       200.6 +j    126.5      237.2       0.8459
   TERMINAL TOTAL    759.6 +j    476.7      896.8       0.8470
135          1      -283.0 +j   -157.5      323.9       0.8737
135          2      -276.0 +j   -192.7      336.6       0.8200
135          3      -200.6 +j   -126.5      237.2       0.8459
   TERMINAL TOTAL   -759.6 +j   -476.7      896.8       0.8470

ELEMENT = "Line.SW4"
60           1       570.9 +j     22.2      571.4       0.9992
60           2       425.1 +j    -20.2      425.6      -0.9989
60           3       460.5 +j    -20.4      461.0      -0.9990
   TERMINAL TOTAL   1456.6 +j    -18.4     1456.7      -0.9999
160          1      -570.9 +j    -22.2      571.4       0.9992
160          2      -425.1 +j     20.2      425.6      -0.9989
160          3      -460.5 +j     20.4      461.0      -0.9990
   TERMINAL TOTAL  -1456.6 +j     18.4     1456.7      -0.9999

ELEMENT = "Line.SW5"
97           1       144.0 +j     72.9      161.4       0.8923
97           2        80.1 +j     40.2       89.6       0.8938
97           3       100.3 +j     50.3      112.2       0.8939
   TERMINAL TOTAL    324.5 +j    163.4      363.3       0.8932
197          1      -144.0 +j    -72.9      161.4       0.8923
197          2       -80.1 +j    -40.2       89.6       0.8938
197          3      -100.3 +j    -50.3      112.2       0.8939
   TERMINAL TOTAL   -324.5 +j   -163.4      363.3       0.8932

ELEMENT = "Line.SW6"
61           1         0.0 +j      0.0        0.0       0.0617
61           2         0.0 +j      0.0        0.0       0.0183
61           3         0.0 +j      0.0        0.0       0.0238
   TERMINAL TOTAL      0.0 +j      0.0        0.0       0.0342
61S          1        -0.0 +j     -0.0        0.0       0.0617
61S          2        -0.0 +j     -0.0        0.0       0.0183
61S          3        -0.0 +j     -0.0        0.0       0.0238
   TERMINAL TOTAL     -0.0 +j     -0.0        0.0       0.0342

ELEMENT = "Line.SW7"
151          1         0.0 +j      0.0        0.0       1.0000
151          2         0.0 +j      0.0        0.0       1.0000
151          3         0.0 +j      0.0        0.0       1.0000
   TERMINAL TOTAL      0.0 +j      0.0        0.0       1.0000
300_OPEN     1         0.0 +j      0.0        0.0       1.0000
300_OPEN     2         0.0 +j      0.0        0.0       1.0000
300_OPEN     3         0.0 +j      0.0        0.0       1.0000
   TERMINAL TOTAL      0.0 +j      0.0        0.0       1.0000

ELEMENT = "Line.SW8"
54           1         0.0 +j      0.0        0.0       1.0000
   TERMINAL TOTAL      0.0 +j      0.0        0.0       1.0000
94_OPEN      1         0.0 +j      0.0        0.0       1.0000
   TERMINAL TOTAL      0.0 +j      0.0        0.0       1.0000

ELEMENT = "Transformer.XFM1"
61S          1         0.0 +j      0.0        0.0       0.0073
61S          2         0.0 +j      0.0        0.0       0.0001
61S          3        -0.0 +j      0.0        0.0      -0.0071
61S          0         0.0 +j      0.0        0.0       1.0000
   TERMINAL TOTAL      0.0 +j      0.0        0.0       0.0000
610          1         0.0 +j      0.0        0.0       0.2880
610          2         0.0 +j      0.0        0.0       0.1531
610          3         0.0 +j      0.0        0.0       0.5944
610          0         0.0 +j      0.0        0.0       1.0000
   TERMINAL TOTAL      0.0 +j      0.0        0.0       0.3160

ELEMENT = "Capacitor.C83"
83           1         0.0 +j   -219.6      219.6       1.0000
83           2         0.0 +j   -220.5      220.5       1.0000
83           3         0.0 +j   -215.6      215.6       1.0000
   TERMINAL TOTAL      0.0 +j   -655.7      655.7       1.0000
83           0         0.0 +j      0.0        0.0       1.0000
83           0         0.0 +j      0.0        0.0       1.0000
83           0         0.0 +j      0.0        0.0       1.0000
   TERMINAL TOTAL      0.0 +j      0.0        0.0       1.0000

ELEMENT = "Capacitor.C88A"
88           1         0.0 +j    -54.1       54.1       1.0000
   TERMINAL TOTAL      0.0 +j    -54.1       54.1       1.0000
88           0         0.0 +j      0.0        0.0       1.0000
   TERMINAL TOTAL      0.0 +j      0.0        0.0       1.0000

ELEMENT = "Capacitor.C90B"
90           2        -0.0 +j    -54.1       54.1       0.0000
   TERMINAL TOTAL     -0.0 +j    -54.1       54.1       0.0000
90           0         0.0 +j      0.0        0.0       1.0000
   TERMINAL TOTAL      0.0 +j      0.0        0.0       1.0000

ELEMENT = "Capacitor.C92C"
92           3         0.0 +j    -53.8       53.8      -0.0000
   TERMINAL TOTAL      0.0 +j    -53.8       53.8      -0.0000
92           0         0.0 +j      0.0        0.0       1.0000
   TERMINAL TOTAL      0.0 +j      0.0        0.0       1.0000

ELEMENT = "Transformer.REG2A"
9            1        60.8 +j     30.4       68.0       0.8941
9            0         0.0 +j      0.0        0.0       1.0000
   TERMINAL TOTAL     60.8 +j     30.4       68.0       0.8941
9R           1       -60.8 +j    -30.4       68.0       0.8941
9R           0         0.0 +j      0.0        0.0       1.0000
   TERMINAL TOTAL    -60.8 +j    -30.4       68.0       0.8941

ELEMENT = "Transformer.REG3A"
25           1        40.1 +j     20.1       44.9       0.8939
25           0         0.0 +j      0.0        0.0       1.0000
   TERMINAL TOTAL     40.1 +j     20.1       44.9       0.8939
25R          1       -40.1 +j    -20.1       44.9       0.8939
25R          0         0.0 +j      0.0        0.0       1.0000
   TERMINAL TOTAL    -40.1 +j    -20.1       44.9       0.8939

ELEMENT = "Transformer.REG4A"
160          1       570.9 +j     22.2      571.4       0.9992
160          0         0.0 +j      0.0        0.0       1.0000
   TERMINAL TOTAL    570.9 +j     22.2      571.4       0.9992
160R         1      -570.9 +j    -22.1      571.4       0.9992
160R         0         0.0 +j      0.0        0.0       1.0000
   TERMINAL TOTAL   -570.9 +j    -22.1      571.4       0.9992

ELEMENT = "Transformer.REG3C"
25           3        40.0 +j     20.0       44.8       0.8943
25           0         0.0 +j      0.0        0.0       1.0000
   TERMINAL TOTAL     40.0 +j     20.0       44.8       0.8943
25R          3       -40.0 +j    -20.0       44.8       0.8943
25R          0         0.0 +j      0.0        0.0       1.0000
   TERMINAL TOTAL    -40.0 +j    -20.0       44.8       0.8943

ELEMENT = "Transformer.REG4B"
160          2       425.1 +j    -20.2      425.6      -0.9989
160          0         0.0 +j      0.0        0.0       1.0000
   TERMINAL TOTAL    425.1 +j    -20.2      425.6      -0.9989
160R         2      -425.1 +j     20.2      425.6      -0.9989
160R         0         0.0 +j      0.0        0.0       1.0000
   TERMINAL TOTAL   -425.1 +j     20.2      425.6      -0.9989

ELEMENT = "Transformer.REG4C"
160          3       460.5 +j    -20.4      461.0      -0.9990
160          0         0.0 +j      0.0        0.0       1.0000
   TERMINAL TOTAL    460.5 +j    -20.4      461.0      -0.9990
160R         3      -460.5 +j     20.4      461.0      -0.9990
160R         0         0.0 +j      0.0        0.0       1.0000
   TERMINAL TOTAL   -460.5 +j     20.4      461.0      -0.9990

= = = = = = = = = = = = = = = = = = =  = = = = = = = = = = =  = =

Power Conversion Elements

  Bus    Phase     kW   +j  kvar         kVA         PF

ELEMENT = "Load.S1A"
1            1      40.0 +j   20.0       44.7       0.8944
1            0       0.0 +j    0.0        0.0       1.0000
  TERMINAL TOTAL      40.0 +j     20.0       44.7       0.8944

ELEMENT = "Load.S2B"
2            2      20.0 +j   10.0       22.4       0.8944
2            0       0.0 +j    0.0        0.0       1.0000
  TERMINAL TOTAL      20.0 +j     10.0       22.4       0.8944

ELEMENT = "Load.S4C"
4            3      40.0 +j   20.0       44.7       0.8944
4            0       0.0 +j    0.0        0.0       1.0000
  TERMINAL TOTAL      40.0 +j     20.0       44.7       0.8944

ELEMENT = "Load.S5C"
5            3      20.5 +j   10.3       23.0       0.8944
5            0       0.0 +j    0.0        0.0       1.0000
  TERMINAL TOTAL      20.5 +j     10.3       23.0       0.8944

ELEMENT = "Load.S6C"
6            3      42.1 +j   21.0       47.1       0.8944
6            0       0.0 +j    0.0        0.0       1.0000
  TERMINAL TOTAL      42.1 +j     21.0       47.1       0.8944

ELEMENT = "Load.S7A"
7            1      20.0 +j   10.0       22.4       0.8944
7            0       0.0 +j    0.0        0.0       1.0000
  TERMINAL TOTAL      20.0 +j     10.0       22.4       0.8944

ELEMENT = "Load.S9A"
9            1      40.0 +j   20.0       44.7       0.8944
9            0       0.0 +j    0.0        0.0       1.0000
  TERMINAL TOTAL      40.0 +j     20.0       44.7       0.8944

ELEMENT = "Load.S10A"
10           1      20.1 +j   10.1       22.5       0.8944
10           0       0.0 +j    0.0        0.0       1.0000
  TERMINAL TOTAL      20.1 +j     10.1       22.5       0.8944

ELEMENT = "Load.S11A"
11           1      40.5 +j   20.3       45.3       0.8944
11           0       0.0 +j    0.0        0.0       1.0000
  TERMINAL TOTAL      40.5 +j     20.3       45.3       0.8944

ELEMENT = "Load.S12B"
12           2      20.0 +j   10.0       22.4       0.8944
12           0       0.0 +j    0.0        0.0       1.0000
  TERMINAL TOTAL      20.0 +j     10.0       22.4       0.8944

ELEMENT = "Load.S16C"
16           3      40.0 +j   20.0       44.7       0.8944
16           0       0.0 +j    0.0        0.0       1.0000
...